@<TRIPOS>MOLECULE
c15
   15    14     1     0     0
SMALL
NO_CHARGES


@<TRIPOS>ATOM
      1 C1        0.0000    0.0000    0.0000 CT   1 MOL  0.0000
      2 C2        1.5400    0.0000    0.0000 CT   1 MOL  0.0000
      3 C3        2.0414    1.4561    0.0000 CT   1 MOL  0.0000
      4 C4        3.5814    1.4561    0.0000 CT   1 MOL  0.0000
      5 C5        4.0827    2.9122    0.0000 CT   1 MOL  0.0000
      6 C6        5.6227    2.9122    0.0000 CT   1 MOL  0.0000
      7 C7        6.1241    4.3683    0.0000 CT   1 MOL  0.0000
      8 C8        7.6641    4.3683    0.0000 CT   1 MOL  0.0000
      9 C9        8.1655    5.8244    0.0000 CT   1 MOL  0.0000
     10 C10       9.7055    5.8244    0.0000 CT   1 MOL  0.0000
     11 C11      10.2069    7.2805    0.0000 CT   1 MOL  0.0000
     12 C12      11.7469    7.2805    0.0000 CT   1 MOL  0.0000
     13 C13      12.2482    8.7366    0.0000 CT   1 MOL  0.0000
     14 C14      13.7882    8.7366    0.0000 CT   1 MOL  0.0000
     15 C15      14.2896   10.1927    0.0000 CT   1 MOL  0.0000
@<TRIPOS>BOND
     1     1     2    1
     2     2     3    1
     3     3     4    1
     4     4     5    1
     5     5     6    1
     6     6     7    1
     7     7     8    1
     8     8     9    1
     9     9    10    1
    10    10    11    1
    11    11    12    1
    12    12    13    1
    13    13    14    1
    14    14    15    1
@<TRIPOS>SUBSTRUCTURE
     1 MOL   1 TEMP  0 ****  ****  0 ROOT
