@<TRIPOS>MOLECULE
c4
    4     3     1     0     0
SMALL
NO_CHARGES


@<TRIPOS>ATOM
      1 A      0.0000    0.0000    0.0000 CT   1 MOL  0.0000
      2 B      1.5400    0.0000    0.0000 CT   1 MOL  0.0000
      3 C      1.5400    1.5400    0.0000 CT   1 MOL  0.0000
      4 D      1.5400    1.5400    1.5400 CT   1 MOL  0.0000
@<TRIPOS>BOND
     1     1     2    1
     2     2     3    1
     3     3     4    1
@<TRIPOS>SUBSTRUCTURE
     1 MOL   1 TEMP  0 ****  ****  0 ROOT