@<TRIPOS>MOLECULE
c5
    5     4     1     0     0
SMALL
NO_CHARGES


@<TRIPOS>ATOM
      1 C1        0.0000    0.0000    0.0000 CT   1 MOL  0.0000
      2 C2        1.5400    0.0000    0.0000 CT   1 MOL  0.0000
      3 C3        2.0414    1.4561    0.0000 CT   1 MOL  0.0000
      4 C4        3.5814    1.4561    0.0000 CT   1 MOL  0.0000
      5 C5        4.0827    2.9122    0.0000 CT   1 MOL  0.0000
@<TRIPOS>BOND
     1     1     2    1
     2     2     3    1
     3     3     4    1
     4     4     5    1
@<TRIPOS>SUBSTRUCTURE
     1 MOL   1 TEMP  0 ****  ****  0 ROOT
